FoamFile { version 2.0; format ascii; class dictionary; object fvSolution; }

solvers
{
    p
    {
        solver          GAMG;
        smoother        GaussSeidel;
        tolerance       1e-08;
        relTol          0.01;
    }
    U
    {
        solver          smoothSolver;
        smoother        symGaussSeidel;
        tolerance       1e-08;
        relTol          0.1;
    }
}

SIMPLE
{
    nNonOrthogonalCorrectors 0;
    consistent      yes;
    residualControl
    {
        p   1e-5;
        U   1e-5;
    }
}

relaxationFactors
{
    equations
    {
        U   0.9;
    }
}
