FoamFile { version 2.0; format ascii; class volScalarField; object p; }
dimensions      [0 2 -2 0 0 0 0];
internalField   uniform 0;
boundaryField
{
    cylinder     { type zeroGradient; }
    farfield     { type freestreamPressure; freestreamValue uniform 0; }
    frontAndBack { type empty; }
}
