FoamFile { version 2.0; format ascii; class dictionary; object fvSolution; }
solvers
{
    p
    {
        solver          GAMG;
        smoother        GaussSeidel;
        tolerance       1e-07;
        relTol          0.01;
    }
    pFinal
    {
        $p;
        relTol          0;
    }
    U
    {
        solver          smoothSolver;
        smoother        symGaussSeidel;
        tolerance       1e-08;
        relTol          0;
    }
    UFinal { $U; }
}
PIMPLE
{
    nOuterCorrectors 3;
    nCorrectors      2;
    nNonOrthogonalCorrectors 1;
}
