FoamFile { version 2.0; format ascii; class dictionary; object controlDict; }
application     simpleFoam;
startFrom       startTime;
startTime       0;
stopAt          endTime;
endTime         2000;
deltaT          1;
writeControl    timeStep;
writeInterval   500;
purgeWrite      1;
writeFormat     ascii;
writePrecision  8;
runTimeModifiable true;

functions
{
    #include "forceCoeffs"
}
